/*--------------------------------*- C++ -*----------------------------------*\
  =========                 |
  \\      /  F ield         | OpenFOAM: The Open Source CFD Toolbox
   \\    /   O peration     | Website:  https://openfoam.org
    \\  /    A nd           | Version:  13
     \\/     M anipulation  |
\*---------------------------------------------------------------------------*/
FoamFile
{
    format      ascii;
    class       dictionary;
    location    "constant";
    object      physicalProperties;
}
// * * * * * * * * * * * * * * * * * * * * * * * * * * * * * * * * * * * * * //

thermoType
{
    type            heRhoThermo;
    mixture         pureMixture;
    transport       NSRDS;
    thermo          NSRDS;
    equationOfState NSRDS;
    specie          specie;
    energy          sensibleEnthalpy;
}

mixture
{
    ${${FOAM_ETC}/thermoData/NSRDSphysicalProperties!H2O}
}

// ************************************************************************* //
